FoamFile
{
    version         1.4;
    format          ascii;

    root            "";
    case            "";
    instance        "constant";
    local           "";

    class           dictionary;
    object          gmtDict;
}

projection "X2.1i/1.6i";
projection2D XZ;
plotBoundaryDots false;

FieldsToPlot (
    [none mesh "black"]
);

region "-12.5e3/12.5e3/0/20e3";
boundaryMarks "5e3/5e3wSen";
