FoamFile
{
    version         1.4;
    format          ascii;

    root            "";
    case            "";
    instance        "constant";
    local           "";

    class           dictionary;
    object          gmtDict;
}

projection "X4.5i/0.8i";
projection2D XZ;
plotBoundaryDots false;

FieldsToPlot (
    [none mesh "black"]
);

region "-25e3/25e3/0/10e3";
boundaryMarks "5e3/5e3Wsen";
