/*--------------------------------*- C++ -*----------------------------------*\
| =========                 |                                                 |
| \\      /  F ield         | OpenFOAM: The Open Source CFD Toolbox           |
|  \\    /   O peration     | Version:  dev                                   |
|   \\  /    A nd           | Web:      www.OpenFOAM.org                      |
|    \\/     M anipulation  |                                                 |
\*---------------------------------------------------------------------------*/
FoamFile
{
    version     2.0;
    format      binary;
    class       polyBoundaryMesh;
    location    "constant/polyMesh";
    object      boundary;
}
// * * * * * * * * * * * * * * * * * * * * * * * * * * * * * * * * * * * * * //

5
(
    left
    {
        type            cyclic;
        inGroups        1(cyclic);
        nFaces          10;
        startFace       275;
        matchTolerance  0.0001;
        transform       unknown;
        neighbourPatch  right;
    }
    right
    {
        type            cyclic;
        inGroups        1(cyclic);
        nFaces          10;
        startFace       285;
        matchTolerance  0.0001;
        transform       unknown;
        neighbourPatch  left;
    }
    ground
    {
        type            wall;
        inGroups        1(wall);
        nFaces          15;
        startFace       295;
    }
    top
    {
        type            wall;
        inGroups        1(wall);
        nFaces          15;
        startFace       310;
    }
    frontAndBack
    {
        type            empty;
        inGroups        1(empty);
        nFaces          300;
        startFace       325;
    }
)

// ************************************************************************* //
