FoamFile {
    version         1.4;
    format          ascii;

    root            "";
    case            "";
    instance        "constant";
    local           "";

    class           dictionary;
    object          gmtDict;
}

projection "X5i/1.6i";
projection2D XZ;
separateLegend true;
plotBoundaryDots false;

FieldsToPlot (
    [theta_diff rawValues -1.0 1.0 0.1 "$GMTU/colours/red_white_blue.cpt"]
);

region "-25e3/75e3/0/12e3";
boundaryMarks "25e3/2e3WSen";
