FoamFile {
        version         1.4;
        format          ascii;

        root            "";
        case            "";
        instance        "constant";
        local           "";

        class           dictionary;
        object          gmtDict;
}

projection "X5i/3.5i";
projection2D XZ;
separateLegend false;
plotBoundaryDots false;

FieldsToPlot (
        [none mesh "gray"]
);

region "-150.5e3/150.5e3/0/25e3";
boundaryMarks "50e3/10e3WSen";
