FoamFile
{
    version         1.4;
    format          ascii;

    root            "";
    case            "";
    instance        "constant";
    local           "";

    class           dictionary;
    object          gmtDict;
}

projection "X4.6i/1.4i";
projection2D XZ;
plotBoundaryDots false;

FieldsToPlot (
    [none mesh "black"]
);

region "-300e3/300e3/0/30e3";
boundaryMarks "150e3/10e3WSen";
